// Generated for: spectre
// Generated on: Mar  7 18:41:37 2017
// Design library name: project_lib
// Design cell name: TEST_COMPARATOR
// Design view name: schematic
simulator lang=spectre
global 0 vdd!
