// Generated for: spectre
// Generated on: Feb 24 17:24:59 2017
// Design library name: project_lib
// Design cell name: INV
// Design view name: schematic
simulator lang=spectre
global 0
