// Generated for: spectre
// Generated on: Feb 27 18:12:02 2017
// Design library name: project_lib
// Design cell name: Adder_Test
// Design view name: schematic
simulator lang=spectre
global 0 vdd!
