// Generated for: spectre
// Generated on: Mar  5 17:39:01 2017
// Design library name: project_lib
// Design cell name: TEST_Adder_5bit
// Design view name: schematic
simulator lang=spectre
global 0 vdd!
